[TITLE]
Omiš postojeæe								

[JUNCTIONS]
;ID              	Elev        	Demand      	Pattern         
 dn800_1         	317         	0           	                	;				
 dn800_2         	307         	0           	                	;				
 dn800_3         	240         	0           	                	;				
 dn800_4         	235         	0           	                	;				
 dn800_5         	223         	0           	                	;				
 dn800_6         	220         	0           	                	;				
 dn800_7         	220         	0           	                	;				
 dn800_8         	220         	0           	                	;				
 dn800_9         	220         	0           	                	;				
 dn800_10        	225         	0           	                	;				
 dn800_11        	225         	0           	                	;				
 dn800_12        	222         	0           	                	;				
 dn800_13        	215         	0           	                	;				
 dn800_14        	214         	0           	                	;				
 dn800_15        	213         	0           	                	;				
 dn800_16        	210         	0           	                	;				
 dn800_17        	205         	0           	                	;				
 dn800_18        	206         	0           	                	;				
 dn800_19        	200         	0           	                	;				
 dn800_20        	210         	0           	                	;				
 dn800_21        	225         	0           	                	;				
 dn800_22        	235         	0           	                	;				
 dn800_23        	236         	0           	                	;				
 dn700_1         	239         	0           	                	;				
 dn700_2         	235         	0           	                	;				
 dn700_3         	234         	0           	                	;				
 dn700_4         	235         	0           	                	;				
 dn700_5         	224         	0           	                	;				
 dn700_6         	224         	0           	                	;				
 dn700_7         	215         	0           	                	;				
 dn700_8         	180         	0           	                	;				
 dn700_9         	170         	0           	                	;				
 dn700_10        	166         	0           	                	;				
 dn700_11        	168         	0           	                	;				
 dn700_12        	167         	0           	                	;				
 dn700_13        	163         	0           	                	;				
 dn700_14        	157         	0           	                	;				
 dn700_15        	153         	0           	                	;				
 dn700_16        	154         	0           	                	;				
 dn700_17        	140         	0           	                	;				
 dn700_18        	152         	0           	                	;				
 dn700_19        	146         	0           	                	;				
 dn700_20        	140         	0           	                	;				
 dn700_21        	137         	0           	                	;				
 dn700_22        	132         	0           	                	;				
 dn700_23        	132         	0           	                	;				
 dn700_24        	120         	0           	                	;				
 dn700_25        	105         	0           	                	;				
 dn700_26        	125         	0           	                	;				
 dn700_27        	124         	0           	                	;				
 dn700_28        	145         	0           	                	;				
 dn700_29        	150         	0           	                	;				
 dn700_30        	175         	0           	                	;				
 dn700_31        	180         	0           	                	;				
 dn700_32        	190         	0           	                	;				
 dn700_33        	185         	0           	                	;				
 dn700_34        	172         	0           	                	;				
 dn700_35        	148         	0           	                	;				
 dn700_36        	148         	0           	                	;				
 dn700_37        	158         	0           	                	;				
 dn700_38        	170         	0           	                	;				
 dn700_39        	175         	0           	                	;				
 dn700_40        	175         	0           	                	;				
 dn700_41        	220         	0           	                	;				
 dn700_42        	231.5       	0           	                	;				
 dn700_43        	229.4       	0           	                	;				
 dn700_44        	195         	0           	                	;				
 dn700_45        	186         	0           	                	;				
 dn700_46        	173         	0           	                	;				
 dn700_47        	174         	0           	                	;				
 dn700_48        	180         	0           	                	;				
 dn700_49        	172         	0           	                	;				
 T21             	236         	0           	                	;				
 dn600_2         	232         	0           	                	;				
 dn600_3         	172         	0           	                	;				
 dn600_4         	150         	0           	                	;				
 dn600_5         	85          	0           	                	;				
 dn600_6         	49          	0           	                	;				
 dn600_7         	30          	0           	                	;				
 dn600_8         	10          	0           	                	;				
 dn600_9         	5           	0           	                	;				
 dn600_10        	5           	0           	                	;				
 dn600_11        	4           	0           	                	;				
 dn600_12        	5           	0           	                	;				
 dn600_13        	4           	0           	                	;				
 dn600_14        	3           	0           	                	;				
 dn600_15        	3           	0           	                	;				
 dn600_16        	2           	0           	                	;				
 dn600_17        	2           	0           	                	;				
 dn600_18        	2           	0           	                	;				
 dn600_19        	2           	0           	                	;				
 dn600_20        	2           	0           	                	;				
 dn600_21        	2           	0           	                	;				
 dn600_22        	2           	0           	                	;				
 dn600_23        	2           	0           	                	;				
 dn600_24        	2           	0           	                	;				
 dn600_25        	2           	0           	                	;				
 dn600_26        	2           	0           	                	;				
 dn600_27        	2           	0           	                	;				
 dn600_28        	2           	0           	                	;				
 dn600_29        	2           	0           	                	;				
 n_350ce_1       	163         	0           	                	;				
 n_350ce_2       	126         	0           	                	;				
 n_350ce_3       	118         	0           	                	;				
 n_350ce_4       	95          	0           	                	;				
 n_350ce_5       	75          	0           	                	;				
 n_350ce_6       	55          	0           	                	;				
 n_350ce_7       	25          	0           	                	;				
 n_350ce_8       	30          	0           	                	;				
 n_350ce_9       	36          	0           	                	;				
 n_350ce_10      	45          	0           	                	;				
 n_350ce_11      	45          	0           	                	;				
 n_350ce_12      	50          	0           	                	;				
 n_350ce_13      	50          	0           	                	;				
 n_350ce_14      	56          	0           	                	;				
 n_350ce_15      	60          	0           	                	;				
 n_350ce_16      	55          	0           	                	;				
 n_350ce_17      	52          	0           	                	;				
 n_350ce_18      	58          	0           	                	;				
 n_350ce_19      	68          	0           	                	;				
 n_350ce_20      	76          	0           	                	;				
 n_350ce_21      	68          	0           	                	;				
 n_350ce_22      	63          	0           	                	;				
 n_350ce_23      	58          	0           	                	;				
 n_350ce_24      	48          	0           	                	;				
 n_350ce_25      	48          	0           	                	;				
 n_350ce_26      	60          	0           	                	;				
 n_350ce_27      	75          	0           	                	;				
 n_350ce_28      	88          	1.495       	OmisObala       	;				
 n_350ce_29      	95          	0           	                	;				
 T30             	100         	0           	                	;				
 n_350ce_31      	103         	0           	                	;				
 n_350ce_32      	96          	0           	                	;				
 n_350acc_1      	128         	0           	                	;				
 n_350acc_2      	112         	0           	                	;				
 n_350acc_3      	85          	0           	                	;				
 n_350acc_4      	85          	0           	                	;				
 n_350acc_5      	82          	0           	                	;				
 n_350acc_6      	80          	0           	                	;				
 n_350acc_7      	76          	0           	                	;				
 n_350acc_8      	79          	0           	                	;				
 n_350acc_9      	82          	0           	                	;				
 n_350acc_10     	92          	0           	                	;				
 n_350acc_11     	88          	0           	                	;				
 n_350acc_12     	75          	0           	                	;				
 n_350acc_13     	93          	0           	                	;				
 n_350acc_14     	103         	0           	                	;				
 n_350acc_15     	77          	0           	                	;				
 n_350acc_16     	73          	0           	                	;				
 n_350acc_17     	72          	0           	                	;				
 n_350acc_18     	87          	0           	                	;				
 n_350acc_19     	59          	0           	                	;				
 n_350acc_20     	72          	0           	                	;				
 n_350acc_21     	75          	0           	                	;				
 n_350acc_22     	80          	0           	                	;				
 n_350acc_23     	77          	0           	                	;				
 n_350acc_24     	75          	0           	                	;				
 n_350acc_25     	74          	0           	                	;				
 n_350acc_26     	74          	0           	                	;				
 n_350acc_27     	76          	0           	                	;				
 n_350acc_28     	75          	0           	                	;				
 n_350acc_29     	77          	0           	                	;				
 n_350acc_30     	77          	0           	                	;				
 n_350acc_31     	85          	0           	                	;				
 n_350acc_32     	93          	0           	                	;				
 n_350acc_33     	102         	0           	                	;				
 n_350acc_34     	102         	0           	                	;				
 n_350acc_35     	100         	0           	                	;				
 n_350acc_36     	98          	0           	                	;				
 n_350acc_37     	105         	0           	                	;				
 n_350acc_38     	100         	0           	                	;				
 n_350acc_39     	92          	0           	                	;				
 n_350acc_40     	94          	0           	                	;				
 n_350acc_41     	94          	0           	                	;				
 n_300ce_1       	165         	0           	                	;				
 n_300ce_2       	140         	0           	                	;				
 n_300ce_3       	122         	0           	                	;				
 n_300ce_4       	118         	0           	                	;				
 n_300ce_5       	112         	0           	                	;				
 n_300ce_6       	94          	0           	                	;				
 n_300ce_7       	78.4        	0           	                	;				
 n_300ce_8       	70          	0           	                	;				
 n_300ce_9       	66          	0           	                	;				
 n_300ce_10      	66          	0           	                	;				
 n_300ce_11      	65          	0           	                	;				
 n_300ce_12      	50          	0           	                	;				
 n_300ce_13      	45          	0           	                	;				
 n_300ce_14      	42.5        	0           	                	;				
 n_300ce_15      	40          	0           	                	;				
 n_300ce_16      	37          	0           	                	;				
 n_300ce_17      	35          	0           	                	;				
 n_300ce_18      	30          	0           	                	;				
 n_300ce_19      	25          	0           	                	;				
 n_300ce_20      	20          	0           	                	;				
 n_300ce_21      	10          	0           	                	;				
 n_300ce_22      	5           	0           	                	;				
 n_300ce_23      	5           	0           	                	;				
 n_300ce_24      	4           	0           	                	;				
 n_300ce_25      	4           	0           	                	;				
 n_300ce_26      	3           	0           	                	;				
 n_300ce_27      	3           	0           	                	;				
 n_300ce_28      	2           	0           	                	;				
 n_300ce_29      	2           	0           	                	;				
 n_300ce_30      	2           	0           	                	;				
 n_300ce_31      	2           	0           	                	;				
 n_300du_1       	308         	0           	                	;				
 n_300du_2       	308         	0           	                	;				
 n_300du_3       	308         	0           	                	;				
 n_300du_4       	307         	0           	                	;				
 n_300du_5       	309         	0           	                	;				
 n_300du_6       	309         	0           	                	;				
 n_300du_7       	310         	0           	                	;				
 n_300du_8       	312         	0           	                	;				
 n_300du_9       	310         	0           	                	;				
 n_300du_10      	306         	0           	                	;				
 n_300du_11      	300         	0           	                	;				
 n_300du_12      	294         	0           	                	;				
 n_300du_13      	301         	0           	                	;				
 n_300du_14      	295         	0           	                	;				
 n_300du_15      	300         	0           	                	;				
 n_300du_16      	295         	0           	                	;				
 n_300du_17      	290         	0           	                	;				
 n_300du_18      	285         	0           	                	;				
 n_300du_19      	282         	0           	                	;				
 n_300du_20      	278         	0           	                	;				
 n_300du_21      	274         	0           	                	;				
 n_300du_22      	232         	0           	                	;				
 n_300du_23      	231         	0           	                	;				
 n_300du_24      	231         	0           	                	;				
 n_300du_25      	230         	0           	                	;				
 n_300du_26      	225         	0           	                	;				
 n_300du_27      	218         	0           	                	;				
 n_300du_28      	217         	0           	                	;				
 n_300du_29      	205         	0           	                	;				
 n_300du_30      	205         	0           	                	;				
 n_300du_31      	208         	0           	                	;				
 n_300du_32      	208         	0           	                	;				
 n_300du_33      	205         	0           	                	;				
 n_300du_34      	204         	0           	                	;				
 n_300du_35      	204         	0           	                	;				
 n_300du_36      	205         	0           	                	;				
 n_300du_37      	205         	0           	                	;				
 n_300du_38      	208         	0           	                	;				
 n_300du_39      	210         	0           	                	;				
 n_300du_40      	215         	0           	                	;				
 n_300du_41      	217         	0           	                	;				
 n_300du_42      	217.7       	0           	                	;				
 n_300du_43      	220         	0           	                	;				
 n_300du_44      	220.8       	0           	                	;				
 n_300du_45      	221         	0           	                	;				
 n_300du_46      	224.8       	0           	                	;				
 n_300du_47      	225.8       	0           	                	;				
 n_300du_48      	225.8       	0           	                	;				
 n_300acc_1      	104         	0           	                	;				
 n_300acc_2      	110         	0           	                	;				
 n_300acc_3      	115         	0           	                	;				
 n_300acc_4      	113         	0           	                	;				
 n_300acc_5      	113         	0           	                	;				
 n_300acc_6      	110         	0           	                	;				
 n_300acc_7      	105         	0           	                	;				
 n_300acc_8      	100         	0           	                	;				
 n_300acc_9      	97          	0           	                	;				
 n_300acc_10     	100         	0           	                	;				
 n_300acc_11     	105         	0           	                	;				
 n_300acc_12     	107         	0           	                	;				
 n_300acc_13     	98          	0           	                	;				
 n_300acc_14     	107         	0           	                	;				
 n_300acc_15     	112         	0           	                	;				
 n_300acc_16     	114         	0           	                	;				
 n_300acc_17     	105         	0           	                	;				
 n_300acc_18     	100         	0           	                	;				
 n_300acc_19     	95          	0           	                	;				
 n_300acc_20     	92          	0           	                	;				
 n_300acc_21     	100         	0.399       	Stanici-Lokva   	;				
 n_300acc_22     	102         	0           	                	;				
 n_300acc_23     	100         	0           	                	;				
 n_300acc_24     	93          	0           	                	;				
 n_300acc_25     	90          	0           	                	;				
 n_300acc_26     	88          	0           	                	;				
 n_300acc_27     	88          	0           	                	;				
 n_300acc_28     	92          	0           	                	;				
 n_300acc_29     	87.3        	0           	                	;				
 n_300acc_30     	84          	0           	                	;				
 n_300acc_31     	85          	0           	                	;				
 n_300acc_32     	90          	0           	                	;				
 n_300acc_33     	100         	0           	                	;				
 n_300acc_34     	105         	0           	                	;				
 n_300acc_35     	95          	0           	                	;				
 n_300acc_36     	89          	0           	                	;				
 n_300acc_37     	100         	0           	                	;				
 n_300acc_38     	104         	0           	                	;				
 n_300acc_39     	100         	0           	                	;				
 n_300acc_40     	105         	0           	                	;				
 n_300acc_41     	110         	0           	                	;				
 n_300acc_42     	115         	0           	                	;				
 n_300acc_43     	115         	0           	                	;				
 n_300acc_44     	100         	0           	                	;				
 n_300acc_45     	95          	0           	                	;				
 n_300acc_46     	92          	0           	                	;				
 n_300acc_47     	93          	0.399       	Stanici-Lokva   	;				
 n_300acc_48     	90          	0           	                	;				
 n_300acc_49     	98          	0           	                	;				
 n_300acc_50     	100         	0           	                	;				
 n_300acc_51     	105         	0           	                	;				
 n_300acc_52     	100         	0           	                	;				
 n_300acc_53     	97          	0           	                	;				
 n_300acc_54     	92          	0           	                	;				
 n_300acc_55     	90          	0           	                	;				
 n_300acc_56     	100         	0           	                	;				
 n_300acc_57     	102         	0           	                	;				
 n_300acc_58     	110         	0           	                	;				
 n_300acc_59     	112         	0           	                	;				
 n_300acc_60     	110         	0           	                	;				
 n_300acc_61     	100         	0           	                	;				
 n_300acc_62     	98          	0           	                	;				
 n_300acc_63     	100         	0           	                	;				
 n_300acc_64     	105         	0           	                	;				
 n_300acc_65     	110         	0           	                	;				
 n_300acc_66     	86          	0           	                	;				
 n_300acc_67     	97          	0           	                	;				
 n_300acc_68     	88          	0           	                	;				
 n_300acc_69     	77          	0           	                	;				
 n_300acc_70     	68          	0           	                	;				
 n_300acc_71     	67          	0           	                	;				
 n_300acc_72     	50          	0           	                	;				
 n_300acc_73     	45          	0           	                	;				
 n_300acc_74     	94          	0           	                	;				
 n_300acc_75     	94          	0           	                	;				
 n_300acc_76     	92          	0           	                	;				
 n_300acc_77     	81          	0           	                	;				
 n_300acc_78     	77          	0           	                	;				
 n_300acc_79     	68          	0           	                	;				
 n_250duc_1      	3           	0           	                	;				
 n_250duc_2      	25          	0           	                	;				
 n_250duc_3      	45          	0           	                	;				
 n_250duc_4      	63          	0           	                	;				
 n_250duc_5      	90          	0           	                	;				
 n_250duc_6      	102         	0           	                	;				
 n_250duc_7      	117         	0           	                	;				
 n_250duc_8      	125         	0           	                	;				
 n_250duc_9      	273         	0           	                	;				
 n_250duc_10     	275         	0           	                	;				
 n_250duc_11     	278         	0           	                	;				
 n_250duc_12     	275         	0           	                	;				
 n_250duc_13     	272         	0           	                	;				
 n_250duc_14     	275         	0           	                	;				
 n_250duc_15     	272         	0           	                	;				
 n_250duc_16     	272         	0           	                	;				
 n_250duc_17     	280         	0           	                	;				
 n_250duc_18     	282         	0           	                	;				
 n_250duc_19     	280         	0           	                	;				
 n_250duc_20     	280         	0           	                	;				
 n_250duc_21     	282         	0           	                	;				
 n_250duc_22     	279         	0           	                	;				
 n_250duc_23     	275.1       	0           	                	;				
 n_250duc_24     	277         	0           	                	;				
 n_250duc_25     	276         	0           	                	;				
 n_250duc_26     	282         	0           	                	;				
 n_250duc_27     	277         	0           	                	;				
 n_250duc_28     	275         	0           	                	;				
 n_250duc_29     	269         	0           	                	;				
 n_250duc_30     	275         	0           	                	;				
 n_250duc_31     	270         	0           	                	;				
 n_250duc_32     	267         	0           	                	;				
 n_250duc_33     	271         	0           	                	;				
 n_250duc_34     	268         	0           	                	;				
 n_250duc_35     	265         	0           	                	;				
 n_250duc_36     	257         	0           	                	;				
 n_250duc_37     	258         	0           	                	;				
 n_250duc_38     	272         	0           	                	;				
 n_250duc_39     	260         	0           	                	;				
 n_250duc_40     	250         	0           	                	;				
 n_250duc_41     	252         	0           	                	;				
 n_250duc_42     	248         	0           	                	;				
 n_250duc_43     	245         	0           	                	;				
 n_250duc_44     	242         	0           	                	;				
 n_250duc_45     	242         	0           	                	;				
 n_250duc_46     	245         	0           	                	;				
 n_250duc_47     	245         	0           	                	;				
 n_250duc_48     	250         	0           	                	;				
 n_250duc_49     	255         	0           	                	;				
 n_250duc_50     	242         	0           	                	;				
 n_250duc_51     	238         	0           	                	;				
 n_250duc_52     	246         	0           	                	;				
 n_250duc_53     	242         	0           	                	;				
 n_250duc_54     	246         	0           	                	;				
 n_250duc_55     	250         	0           	                	;				
 n_250duc_56     	251         	0           	                	;				
 n_250duc_57     	250         	0           	                	;				
 n_250duc_58     	245         	0           	                	;				
 n_250duc_59     	242         	0           	                	;				
 n_250duc_60     	240         	0           	                	;				
 n_250duc_61     	237         	0           	                	;				
 n_250duc_62     	235         	0           	                	;				
 n_250duc_63     	236         	0           	                	;				
 n_250duc_64     	231         	0           	                	;				
 n_250duc_65     	236         	0           	                	;				
 n_250duc_66     	232         	0           	                	;				
 n_250duc_67     	230         	0           	                	;				
 n_250duc_68     	228         	0           	                	;				
 n_250duc_69     	230         	0           	                	;				
 n_250duc_70     	233         	0           	                	;				
 n_250duc_71     	230         	0           	                	;				
 n_250duc_72     	228         	0           	                	;				
 n_250duc_73     	222         	0           	                	;				
 n_250duc_74     	234         	0           	                	;				
 n_250duc_75     	230         	0           	                	;				
 n_250duc_76     	228         	0           	                	;				
 n_250duc_77     	232         	0           	                	;				
 n_250duc_78     	225         	0           	                	;				
 n_250duc_79     	231         	0           	                	;				
 n_250duc_80     	230.2       	0           	                	;				
 n_250duc_81     	230         	0           	                	;				
 n_250duc_82     	230.2       	0           	                	;				
 n_250duc_83     	230.5       	0           	                	;				
 n_250duc_84     	230.5       	0           	                	;				
 n_250duc_85     	230.5       	0           	                	;				
 n_250duc_86     	231         	0           	                	;				
 n_250duc_87     	228         	0           	                	;				
 n_250duc_88     	230         	0           	                	;				
 n_250duc_89     	227         	0           	                	;				
 n_250duc_90     	228         	0           	                	;				
 n_250duc_91     	229         	0           	                	;				
 n_250duc_92     	230         	0           	                	;				
 n_250duc_93     	230         	0           	                	;				
 n_250duc_94     	232         	0           	                	;				
 n_250duc_95     	236         	0           	                	;				
 n_250duc_96     	234         	0           	                	;				
 n_250duc_97     	244         	0           	                	;				
 n_250duc_98     	236         	0           	                	;				
 n_250duc_99     	235         	0           	                	;				
 n_250duc_100    	229         	0           	                	;				
 n_250duc_101    	235         	0           	                	;				
 n_250duc_102    	235         	0           	                	;				
 n_250duc_103    	235         	0           	                	;				
 n_250duc_104    	170         	0           	                	;				
 n_250duc_105    	170         	0           	                	;				
 n_250duc_106    	235         	0           	                	;				
 n_250duc_107    	240         	0           	                	;				
 n_250duc_108    	240         	0           	                	;				
 n_250duc_109    	240         	0           	                	;				
 n_250duc_110    	239         	0           	                	;				
 n_250duc_111    	239         	0           	                	;				
 n_250duc_112    	231         	0           	                	;				
 n_250duc_113    	232         	0           	                	;				
 n_250duc_114    	233         	0           	                	;				